Version 4
SHEET 1 2564 1064
WIRE -128 -336 -176 -336
WIRE 0 -336 -64 -336
WIRE 1680 -336 1680 -384
WIRE 1680 -336 1392 -336
WIRE 1680 -272 1680 -336
WIRE -336 -256 -432 -256
WIRE -176 -256 -176 -336
WIRE -176 -256 -256 -256
WIRE -128 -256 -176 -256
WIRE 0 -256 0 -336
WIRE 0 -256 -48 -256
WIRE 128 -256 0 -256
WIRE 1392 -224 1392 -256
WIRE 1616 -224 1392 -224
WIRE 304 -208 240 -208
WIRE 448 -208 384 -208
WIRE 1392 -192 1392 -224
WIRE -176 -160 -176 -256
WIRE -128 -160 -176 -160
WIRE 0 -160 0 -256
WIRE 0 -160 -64 -160
WIRE -336 -96 -336 -128
WIRE 240 -96 240 -208
WIRE 256 -96 240 -96
WIRE 624 -96 592 -96
WIRE 1392 -96 1392 -128
WIRE 1392 -96 1312 -96
WIRE 1680 -96 1680 -176
WIRE 1808 -96 1680 -96
WIRE 1872 -96 1808 -96
WIRE -544 -80 -592 -80
WIRE -432 -80 -432 -256
WIRE -432 -80 -464 -80
WIRE -368 -80 -432 -80
WIRE 448 -80 448 -208
WIRE 448 -80 320 -80
WIRE 816 -80 688 -80
WIRE 912 -80 816 -80
WIRE 1024 -80 992 -80
WIRE 1072 -80 1024 -80
WIRE 1168 -80 1120 -80
WIRE 1392 -80 1392 -96
WIRE 128 -64 128 -256
WIRE 128 -64 -304 -64
WIRE 160 -64 128 -64
WIRE 256 -64 160 -64
WIRE 448 -64 448 -80
WIRE 480 -64 448 -64
WIRE 576 -64 560 -64
WIRE 624 -64 576 -64
WIRE 1312 -64 1312 -96
WIRE 1312 -64 1232 -64
WIRE -368 -48 -432 -48
WIRE 1072 -48 1072 -80
WIRE 1168 -48 1072 -48
WIRE -592 -32 -592 -80
WIRE 1680 -32 1680 -96
WIRE 1872 -16 1872 -96
WIRE -336 0 -336 -32
WIRE 1024 16 1024 -80
WIRE 1392 16 1392 -16
WIRE 1616 16 1392 16
WIRE 64 48 64 -16
WIRE 128 48 128 32
WIRE 128 48 64 48
WIRE 1392 48 1392 16
WIRE -432 64 -432 -48
WIRE -304 64 -432 64
WIRE -224 64 -304 64
WIRE -80 64 -160 64
WIRE 128 64 128 48
WIRE 128 64 0 64
WIRE 576 64 576 -64
WIRE 624 64 576 64
WIRE 816 64 816 -80
WIRE 816 64 688 64
WIRE -432 96 -432 64
WIRE -304 112 -304 64
WIRE 1680 128 1680 64
WIRE 1680 128 1392 128
WIRE -432 192 -432 160
WIRE 1120 192 1120 -80
WIRE 1808 192 1808 -96
WIRE 1808 192 1120 192
WIRE -304 208 -304 192
WIRE -208 208 -304 208
WIRE -16 208 -112 208
WIRE 32 208 -16 208
WIRE 1024 208 1024 96
WIRE 1680 224 1680 128
WIRE -16 272 -16 208
WIRE -16 272 -160 272
WIRE 160 304 160 -64
WIRE 160 304 -336 304
WIRE 768 336 768 288
WIRE 768 336 480 336
WIRE 768 400 768 336
WIRE 480 448 480 416
WIRE 704 448 480 448
WIRE 64 464 -16 464
WIRE 208 464 144 464
WIRE 272 464 208 464
WIRE 480 480 480 448
WIRE 208 512 208 464
WIRE -224 560 -256 560
WIRE -16 560 -16 464
WIRE -16 560 -144 560
WIRE 64 560 -16 560
WIRE 272 576 272 560
WIRE 272 576 128 576
WIRE 480 576 480 544
WIRE 480 576 272 576
WIRE 768 576 768 496
WIRE 1040 576 768 576
WIRE 64 592 48 592
WIRE 480 592 480 576
WIRE 1696 608 1696 560
WIRE 1040 624 1040 576
WIRE 768 640 768 576
WIRE 480 688 480 656
WIRE 704 688 480 688
WIRE -336 704 -336 304
WIRE 48 704 48 592
WIRE 48 704 -336 704
WIRE 480 720 480 688
WIRE 1040 752 1040 704
WIRE 768 800 768 736
WIRE 768 800 480 800
WIRE 768 848 768 800
FLAG -592 -32 0
FLAG -432 192 0
FLAG 1696 608 0
FLAG 1584 480 V+
FLAG 1696 480 V-
FLAG -336 0 V-
FLAG -336 -128 V+
FLAG 1584 560 0
FLAG 656 -112 V+
FLAG 656 -48 V-
FLAG 160 -96 0
FLAG 288 -112 V+
FLAG 288 -48 V-
FLAG 1872 64 0
FLAG 1200 -96 V+
FLAG 1200 -32 V-
FLAG 1680 -384 V+
FLAG 1680 224 V-
FLAG 768 288 V+
FLAG 768 848 V-
FLAG -256 560 0
FLAG 96 544 V+
FLAG 96 608 V-
FLAG 1040 752 0
FLAG 1024 208 0
FLAG 592 -96 0
FLAG 32 208 0
SYMBOL OpAmps\\OP07 -336 -128 R0
SYMATTR InstName U1
SYMBOL res -448 -96 R90
WINDOW 0 0 56 VBottom 2
WINDOW 3 32 56 VTop 2
SYMATTR InstName R1
SYMATTR Value 10k
SYMBOL res -240 -272 R90
WINDOW 0 0 56 VBottom 2
WINDOW 3 32 56 VTop 2
SYMATTR InstName R2
SYMATTR Value 5k
SYMBOL diode -64 -176 R90
WINDOW 0 0 32 VBottom 2
WINDOW 3 32 32 VTop 2
SYMATTR InstName D2
SYMBOL res -32 -272 R90
WINDOW 0 0 56 VBottom 2
WINDOW 3 32 56 VTop 2
SYMATTR InstName R3
SYMATTR Value 19k
SYMBOL cap -448 96 R0
SYMATTR InstName C1
SYMATTR Value 3n
SYMBOL res -320 96 R0
SYMATTR InstName R4
SYMATTR Value 7.4k
SYMBOL cap -160 48 R90
WINDOW 0 0 32 VBottom 2
WINDOW 3 32 32 VTop 2
SYMATTR InstName C2
SYMATTR Value 3n
SYMBOL res 16 48 R90
WINDOW 0 0 56 VBottom 2
WINDOW 3 32 56 VTop 2
SYMATTR InstName R5
SYMATTR Value 7.4k
SYMBOL voltage 1584 464 R0
WINDOW 123 0 0 Left 0
WINDOW 39 0 0 Left 0
SYMATTR InstName V1
SYMATTR Value 18
SYMBOL voltage 1696 464 R0
WINDOW 123 0 0 Left 0
WINDOW 39 0 0 Left 0
SYMATTR InstName V2
SYMATTR Value -18
SYMBOL res 256 -112 R90
WINDOW 0 0 56 VBottom 2
WINDOW 3 32 56 VTop 2
SYMATTR InstName R9
SYMATTR Value 1k
SYMBOL res 400 -224 R90
WINDOW 0 0 56 VBottom 2
WINDOW 3 32 56 VTop 2
SYMATTR InstName R10
SYMATTR Value 7k
SYMBOL res 1008 0 R0
WINDOW 3 37 81 Left 2
SYMATTR Value 2k
SYMATTR InstName R6
SYMBOL diode -128 -320 R270
WINDOW 0 32 32 VTop 2
WINDOW 3 0 32 VBottom 2
SYMATTR InstName D1
SYMBOL res 1376 -352 R0
SYMATTR InstName R13
SYMATTR Value 1k
SYMBOL res 1376 32 R0
SYMATTR InstName R14
SYMATTR Value 1k
SYMBOL npn 1616 -272 R0
SYMATTR InstName Q1
SYMBOL pnp 1616 64 M180
SYMATTR InstName Q2
SYMBOL res 1856 -32 R0
SYMATTR InstName R15
SYMATTR Value 15
SYMBOL OpAmps\\OP1177 288 -144 R0
SYMATTR InstName U3
SYMBOL OpAmps\\OP1177 96 512 R0
SYMATTR InstName U5
SYMBOL diode 464 480 R0
SYMATTR InstName D5
SYMBOL diode 464 592 R0
SYMATTR InstName D6
SYMBOL res 464 320 R0
SYMATTR InstName R11
SYMATTR Value 1k
SYMBOL res 464 704 R0
SYMATTR InstName R16
SYMATTR Value 1k
SYMBOL npn 704 400 R0
SYMATTR InstName Q5
SYMBOL pnp 704 736 M180
SYMATTR InstName Q6
SYMBOL res 160 448 R90
WINDOW 0 0 56 VBottom 2
WINDOW 3 32 56 VTop 2
SYMATTR InstName R17
SYMATTR Value 3.5k
SYMBOL res -128 544 R90
WINDOW 0 0 56 VBottom 2
WINDOW 3 32 56 VTop 2
SYMATTR InstName R18
SYMATTR Value 1k
SYMBOL res 1024 608 R0
SYMATTR InstName R19
SYMATTR Value 15
SYMBOL pot1 304 560 R180
SYMATTR InstName X3
SYMATTR Value ""
SYMATTR SpiceLine R=1k val={val3}
SYMBOL OpAmps\\OP1177 656 -144 R0
SYMATTR InstName U6
SYMBOL OpAmps\\OP227 1200 -128 R0
SYMATTR InstName U2
SYMBOL res 1008 -96 R90
WINDOW 0 0 56 VBottom 2
WINDOW 3 32 56 VTop 2
SYMATTR InstName R7
SYMATTR Value 32k
SYMBOL res 576 -80 R90
WINDOW 0 0 56 VBottom 2
WINDOW 3 32 56 VTop 2
SYMATTR InstName R8
SYMATTR Value 5k
SYMBOL diode 1376 -192 R0
SYMATTR InstName D3
SYMBOL diode 1376 -80 R0
SYMATTR InstName D4
SYMBOL cap 688 48 R90
WINDOW 0 0 32 VBottom 2
WINDOW 3 32 32 VTop 2
SYMATTR InstName C3
SYMATTR Value 50n
SYMBOL pot1 160 32 R180
SYMATTR InstName X1
SYMATTR Value ""
SYMATTR SpiceLine R=13k val=1
SYMBOL pot1 -112 176 R90
SYMATTR InstName X2
SYMATTR Value ""
SYMATTR SpiceLine R=13k val=1
TEXT 1560 712 Left 2 !;op
TEXT 1552 776 Left 2 !.tran 20m
TEXT 1568 672 Left 2 !.step param val3 1 99 5
